/*--------------------------------*- C++ -*----------------------------------*\
  =========                 |
  \\      /  F ield         | OpenFOAM: The Open Source CFD Toolbox
   \\    /   O peration     | Website:  https://openfoam.org
    \\  /    A nd           | Version:  6
     \\/     M anipulation  |
\*---------------------------------------------------------------------------*/
FoamFile
{
    version     2.0;
    format      ascii;
    class       volScalarField;
    location    "0/bottomAir";
    object      p;
}
// * * * * * * * * * * * * * * * * * * * * * * * * * * * * * * * * * * * * * //

dimensions      [ 1 -1 -2 0 0 0 0 ];

internalField   uniform 100000;

boundaryField
{
    #includeEtc "caseDicts/setConstraintTypes"

	top
	{
		type		calculated; 
		value		$internalField;//uniform 0;
	}

	bot
	{
		type		calculated;
		value		$internalField;//uniform 0;
	}

	front
	{
		type		empty;
	}
		
	back
	{
		type		empty;
	}

	htf_to_pipe
	{
		type		calculated;
		value		$internalField;//uniform 0;
	}
}


// ************************************************************************* //
